function [IM_nom, f_nom, Controls] = NominalSystemMatrix(q_Nom, Controls, ElastoDyn, Airfoils, Twr, Bld, Platform, WindNom, mooring_load, f_Morison)
%#Codegen
g = 9.80665;
% Dofs
q_Sg   = q_Nom(1);
q_Sw   = q_Nom(2);
q_Hv   = q_Nom(3);
q_R    = q_Nom(4);
q_P    = q_Nom(5);
q_Y    = q_Nom(6);
q_TFA1 = q_Nom(7);
q_TSS1 = q_Nom(8);
q_TFA2 = q_Nom(9);
q_TSS2 = q_Nom(10);
q_yaw  = q_Nom(11);
q_GeAz = q_Nom(12);
q_DrTr = q_Nom(13);
q_B1F1 = q_Nom(14);
q_B1E1 = q_Nom(15);
q_B1F2 = q_Nom(16);
q_B2F1 = q_Nom(17);
q_B2E1 = q_Nom(18);
q_B2F2 = q_Nom(19);
q_B3F1 = q_Nom(20);
q_B3E1 = q_Nom(21);
q_B3F2 = q_Nom(22);
%--------------------
q_P1H1 = q_Nom(23); 
q_P1H2 = q_Nom(24); 
q_P1V1 = q_Nom(25);
q_P1V2 = q_Nom(26);
q_P2H1 = q_Nom(27); 
q_P2H2 = q_Nom(28); 
q_P2V1 = q_Nom(29); 
q_P2V2 = q_Nom(30);
q_P3H1 = q_Nom(31); 
q_P3H2 = q_Nom(32); 
q_P3V1 = q_Nom(33); 
q_P3V2 = q_Nom(34);
 
qd_Sg   = q_Nom(23+12);
qd_Sw   = q_Nom(24+12);
qd_Hv   = q_Nom(25+12);
qd_R    = q_Nom(26+12);
qd_P    = q_Nom(27+12);
qd_Y    = q_Nom(28+12);
qd_TFA1 = q_Nom(29+12);
qd_TSS1 = q_Nom(30+12);
qd_TFA2 = q_Nom(31+12);
qd_TSS2 = q_Nom(32+12);
qd_yaw  = q_Nom(33+12);
qd_GeAz = q_Nom(34+12);
qd_DrTr = q_Nom(35+12);
qd_B1F1 = q_Nom(36+12);
qd_B1E1 = q_Nom(37+12);
qd_B1F2 = q_Nom(38+12);
qd_B2F1 = q_Nom(39+12);
qd_B2E1 = q_Nom(40+12);
qd_B2F2 = q_Nom(41+12);
qd_B3F1 = q_Nom(42+12);
qd_B3E1 = q_Nom(43+12);
qd_B3F2 = q_Nom(44+12);
% end of Update state
% --- 提取 OC4 平台新增的 12 个柔性速度自由度 ---
% Sg, Sw, Hv, R, P, Y 现在的索引顺延到了 35-40
% 这里直接列出浮筒的广义速度提取
qd_P1H1 = q_Nom(45+12);
qd_P1H2 = q_Nom(46+12);
qd_P1V1 = q_Nom(47+12);
qd_P1V2 = q_Nom(48+12);
qd_P2H1 = q_Nom(49+12);
qd_P2H2 = q_Nom(50+12);
qd_P2V1 = q_Nom(51+12);
qd_P2V2 = q_Nom(52+12);
qd_P3H1 = q_Nom(53+12);
qd_P3H2 = q_Nom(54+12);
qd_P3V1 = q_Nom(55+12);
qd_P3V2 = q_Nom(56+12);

%% Read Data from Structure to Doubles
TipRad = ElastoDyn.TipRad;
HubRad = ElastoDyn.HubRad;
HubCM = ElastoDyn.HubCM;
OverHang = ElastoDyn.OverHang;
NacCMxn = ElastoDyn.NacCMxn;
NacCMyn = ElastoDyn.NacCMyn;
NacCMzn = ElastoDyn.NacCMzn;
Twr2Shft = ElastoDyn.Twr2Shft;
TwrHt = ElastoDyn.TwrHt;
TowerBsHt = ElastoDyn.TowerBsHt;  
PtfmCMzt = ElastoDyn.PtfmCMzt;   
PtfmRefzt = ElastoDyn.PtfmRefzt;   

mH = ElastoDyn.HubMass;
HubIner = ElastoDyn.HubIner;
GenIner = ElastoDyn.GenIner;
mN = ElastoDyn.NacMass;
NacYIner = ElastoDyn.NacYIner;
YawBrMass = ElastoDyn.YawBrMass;
mX = ElastoDyn.PtfmMass;
PtfmRIner = ElastoDyn.PtfmRIner;
PtfmPIner = ElastoDyn.PtfmPIner;
PtfmYIner = ElastoDyn.PtfmYIner;

GenDir  = 1;
GBRatio = ElastoDyn.GBRatio;
%GBoxEff = ElastoDyn.GBoxEff;
DTTorSpr = ElastoDyn.DTTorSpr;
DTTorDmp = ElastoDyn.DTTorDmp;

nt = Twr.nt;
TwrSec = Twr.TwrSec;
O1_TFA = Twr.O1_TFA;
O2_TFA = Twr.O2_TFA; 
O1_TSS = Twr.O1_TSS;
O2_TSS = Twr.O2_TSS;
s11_TFA = Twr.s11_TFA;
s12_TFA = Twr.s12_TFA;
s22_TFA = Twr.s22_TFA;
S11_TFA = Twr.S11_TFA;
S12_TFA = Twr.S12_TFA;
S22_TFA = Twr.S22_TFA;
s11_TSS = Twr.s11_TSS;
s12_TSS = Twr.s12_TSS;
s22_TSS = Twr.s22_TSS;
S11_TSS = Twr.S11_TSS;
S12_TSS = Twr.S12_TSS;
S22_TSS = Twr.S22_TSS;
dO1_TFA = Twr.dO1_TFA;
dO1_TSS = Twr.dO1_TSS;
dO2_TFA = Twr.dO2_TFA;
dO2_TSS = Twr.dO2_TSS;
mT = Twr.mT;
k11_TFA = Twr.k11_TFA;
k12_TFA = Twr.k12_TFA;
k11_TSS = Twr.k11_TSS;
k12_TSS = Twr.k12_TSS;
k21_TFA = Twr.k21_TFA;
k22_TFA = Twr.k22_TFA;
k21_TSS = Twr.k21_TSS;
k22_TSS = Twr.k22_TSS;
f1_TFA = Twr.f1_TFA;
f2_TFA = Twr.f2_TFA;
f1_TSS = Twr.f1_TSS;
f2_TSS = Twr.f2_TSS;
zeta1_TFA = Twr.zeta1_TFA;
zeta2_TFA = Twr.zeta2_TFA;
zeta1_TSS = Twr.zeta1_TSS;
zeta2_TSS = Twr.zeta2_TSS;

nb = Bld.nb;
BldSec = Bld.BldSec;
O1_B1 = Bld.O1_B1;
O2_B1 = Bld.O2_B1;
O3_B1 = Bld.O3_B1;
W1_B1 = Bld.W1_B1;
W2_B1 = Bld.W2_B1;
W3_B1 = Bld.W3_B1;
s11_B1 = Bld.s11_B1;
s22_B1 = Bld.s22_B1;
s33_B1 = Bld.s33_B1;
s12_B1 = Bld.s12_B1;
s13_B1 = Bld.s13_B1;
s23_B1 = Bld.s23_B1;
mB1 = Bld.mB1;
k11_B1F = Bld.k11_B1F;
k12_B1F = Bld.k12_B1F;
k21_B1F = k12_B1F;
k22_B1F = Bld.k22_B1F;
k11_B1E = Bld.k11_B1E;
f1_B1F = Bld.f1_B1F;
f2_B1F = Bld.f2_B1F;
f1_B1E = Bld.f1_B1E;
zeta1_B1F = Bld.zeta1_B1F;
zeta2_B1F = Bld.zeta2_B1F;
zeta1_B1E = Bld.zeta1_B1E;

YawNeut = 0;
YawSpr  = 9.02832E+09;
YawDamp = 1.916E+07;

% BlSpn = Load.BlSpn;
% nb = Load.nb;
Cord = Bld.Cord;
FoilNo = Bld.FoilNo;
dO1_B1 = Bld.dO1_B1;
dO2_B1 = Bld.dO2_B1;
dO3_B1 = Bld.dO3_B1;
dW1_B1 = Bld.dW1_B1;
dW2_B1 = Bld.dW2_B1;
dW3_B1 = Bld.dW3_B1;

% Since the blades are similar the same properties can be copied
O1_B2 = O1_B1; O2_B2 = O2_B1; O3_B2 = O3_B1; W1_B2 = W1_B1; W2_B2 = W2_B1; W3_B2 = W3_B1;
s11_B2 = s11_B1; s22_B2 = s22_B1; s33_B2 = s33_B1; s12_B2 = s12_B1; s13_B2 = s13_B1; s23_B2 = s23_B1;

O1_B3 = O1_B1; O2_B3 = O2_B1; O3_B3 = O3_B1; W1_B3 = W1_B1; W2_B3 = W2_B1; W3_B3 = W3_B1;
s11_B3 = s11_B1; s22_B3 = s22_B1; s33_B3 = s33_B1; s12_B3 = s12_B1; s13_B3 = s13_B1; s23_B3 = s23_B1;

dO1_B2 = dO1_B1; dO2_B2 = dO2_B1; dO3_B2 = dO3_B1; dW1_B2 = dW1_B1; dW2_B2 = dW2_B1; dW3_B2 = dW3_B1;
dO1_B3 = dO1_B1; dO2_B3 = dO2_B1; dO3_B3 = dO3_B1; dW1_B3 = dW1_B1; dW2_B3 = dW2_B1; dW3_B3 = dW3_B1;

k11_B2F = k11_B1F; k12_B2F = k12_B1F; k22_B2F = k22_B1F; k11_B2E = k11_B1E; k21_B2F = k12_B2F; f1_B2F = f1_B1F; f2_B2F = f2_B1F; f1_B2E = f1_B1E;
k11_B3F = k11_B1F; k12_B3F = k12_B1F; k22_B3F = k22_B1F; k11_B3E = k11_B1E; k21_B3F = k12_B3F; f1_B3F = f1_B1F; f2_B3F = f2_B1F; f1_B3E = f1_B1E;

zeta1_B2F = zeta1_B1F; zeta2_B2F = zeta2_B1F; zeta1_B2E = zeta1_B1E; zeta1_B3F = zeta1_B1F; zeta2_B3F = zeta2_B1F; zeta1_B3E = zeta1_B1E;

mB2 = mB1; mB3 = mB1;

% TMDzn    = TMD.TMDzn;

% end of reading

%% Coordinate Systems
BlPitch = Controls(2:4);
GenTrq  = Controls(1);
% [Z, A, D, C, E, J1, J2, J3, ~, ~, ~, MB1, MB2, MB3] = Coordinate_systems(q_Nom, BlPitch, ElastoDyn, Twr, Bld);
[Z, A, D, C, E, J1, J2, J3,  ~, ~, ~, MB1, MB2, MB3,...
    BP1, BP2, BP3, TP1, TP2, TP3, rP1, rP2, rP3, rP1_tip, rP2_tip, rP3_tip] = Coordinate_systems(q_Nom, BlPitch, ElastoDyn, Twr, Bld, Platform);
%% Position vectors
% Position Vectors

% rZ  = q_Sg*Z(1,:) + q_Hv*Z(2,:) - q_Sw*Z(3,:);                               % platform reference
rZY = (PtfmCMzt - PtfmRefzt)*A(2,:);                                               % platform reference to platform C.M

rZT_1 = O1_TFA*q_TFA1 + O2_TFA*q_TFA2;                                     % O1_TF, O2_TF, s11_TFA, s12_TFA etc are vectors
rZT_2 = reshape(TwrSec,1,1,nt) + PtfmRefzt + TowerBsHt - 0.5*(s11_TFA*q_TFA1^2 + s22_TFA ...        
           *q_TFA2^2 +2*s12_TFA*q_TFA1*q_TFA2 + s11_TSS*q_TSS1^2 + s22_TSS*q_TSS2^2 ...
            + 2*s12_TSS*q_TSS1*q_TSS2);        
rZT_3 = O1_TSS*q_TSS1 + O2_TSS*q_TSS2;
rZT = coprod(rZT_1,A(1,:)) + coprod(rZT_2,A(2,:)) + coprod(rZT_3,A(3,:));                         % rZT is a 3D matrix
rZT0 = rZT(:,:,1);

rZO_1 = q_TFA1 + q_TFA2;                                                     % S11_TFA, S22_TF etc are scalars
rZO_2 = PtfmRefzt + TwrHt - 0.5*(S11_TFA*q_TFA1^2 + S22_TFA ...
           *q_TFA2^2 +2*S12_TFA*q_TFA1*q_TFA2 + S11_TSS*q_TSS1^2 + S22_TSS*q_TSS2^2 ...
            + 2*S12_TSS*q_TSS1*q_TSS2);
rZO_3 = q_TSS1 + q_TSS2;
rZO   = rZO_1*A(1,:) + rZO_2*A(2,:) + rZO_3*A(3,:); 

rOU = NacCMxn*D(1,:) + NacCMzn*D(2,:) - NacCMyn*D(3,:);

% rOIMU = NcIMUxn*D(1,:) + NcIMUzn*D(2,:) - NcIMUyn*D(3,:);
Yaw2Shft =0;
rOQ = OverHang*C(1,:) + Twr2Shft*D(2,:) - Yaw2Shft*D(3,:);

rQC = HubCM*E(1,:);

rQS1_1 = O1_B1*q_B1F1 + O2_B1*q_B1F2 + O3_B1*q_B1E1;
rQS1_3 = reshape(BldSec,1,1,nb) + HubRad - 0.5*(s11_B1*q_B1F1^2 + s22_B1*q_B1F2^2 + s33_B1*q_B1E1^2 ...
       + 2*s12_B1*q_B1F1*q_B1F2 + 2*s23_B1*q_B1F2*q_B1E1 + 2*s13_B1*q_B1F1*q_B1E1);
rQS1_2 = W1_B1*q_B1F1 + W2_B1*q_B1F2 + W3_B1*q_B1E1;

rQS1 = coprod(rQS1_1,J1(1,:)) + coprod(rQS1_2,J1(2,:)) + coprod(rQS1_3,J1(3,:));
rQS10 = rQS1(:,:,1);

rQS2_1 = O1_B2*q_B2F1 + O2_B2*q_B2F2 + O3_B2*q_B2E1;
rQS2_3 = reshape(BldSec,1,1,nb) + HubRad - 0.5*(s11_B2*q_B2F1^2 + s22_B2*q_B2F2^2 + s33_B2*q_B2E1^2 ...
       + 2*s12_B2*q_B2F1*q_B2F2 + 2*s23_B2*q_B2F2*q_B2E1 + 2*s13_B2*q_B2F1*q_B2E1);
rQS2_2 = W1_B2*q_B2F1 + W2_B2*q_B2F2 + W3_B2*q_B2E1;
rQS2 = coprod(rQS2_1,J2(1,:)) + coprod(rQS2_2,J2(2,:)) + coprod(rQS2_3,J2(3,:));
rQS20 = rQS2(:,:,1);

rQS3_1 = O1_B3*q_B3F1 + O2_B3*q_B3F2 + O3_B3*q_B3E1;
rQS3_3 = reshape(BldSec,1,1,nb) + HubRad - 0.5*(s11_B3*q_B3F1^2 + s22_B3*q_B3F2^2 + s33_B3*q_B3E1^2 ...
       + 2*s12_B3*q_B3F1*q_B3F2 + 2*s23_B3*q_B3F2*q_B3E1 + 2*s13_B3*q_B3F1*q_B3E1);
rQS3_2 = W1_B3*q_B3F1 + W2_B3*q_B3F2 + W3_B3*q_B3E1;

rQS3 = coprod(rQS3_1,J3(1,:)) + coprod(rQS3_2,J3(2,:)) + coprod(rQS3_3,J3(3,:));
rQS30 = rQS3(:,:,1);
% end of Position Vectors

%% Angular velocities

EwX = qd_R*Z(1,:) + qd_Y*Z(2,:) - qd_P*Z(3,:);
EwB = EwX + (dO1_TSS*qd_TSS1 + dO2_TSS*qd_TSS2)*A(1,:) - (dO1_TFA*qd_TFA1 + dO2_TFA*qd_TFA2)*A(3,:);
EwN = EwB + qd_yaw*D(2,:);
EwL = EwN + qd_DrTr*C(1,:) + qd_GeAz*C(1,:);
EwG = EwN + GenDir*GBRatio*qd_GeAz*C(1,:);
% end of Angular velocities

%% ================== OC4 浮筒端部角速度 ==================
% 浮筒端部相对于基准系的角速度 (由柔性弯曲引起)
% 绕 Y 轴的转动由垂向 (V) 弯曲引起，绕 Z 轴的转动由水平 (H) 弯曲引起
Ew_rel1_tip_y = -(Platform.dO1_V*qd_P1V1 + Platform.dO2_V*qd_P1V2);
Ew_rel1_tip_z =   Platform.dO1_H*qd_P1H1 + Platform.dO2_H*qd_P1H2;
EwP1_tip = EwX + Ew_rel1_tip_y*BP1(2,:) + Ew_rel1_tip_z*BP1(3,:);

Ew_rel2_tip_y = -(Platform.dO1_V*qd_P2V1 + Platform.dO2_V*qd_P2V2);
Ew_rel2_tip_z =   Platform.dO1_H*qd_P2H1 + Platform.dO2_H*qd_P2H2;
EwP2_tip = EwX + Ew_rel2_tip_y*BP2(2,:) + Ew_rel2_tip_z*BP2(3,:);

Ew_rel3_tip_y = -(Platform.dO1_V*qd_P3V1 + Platform.dO2_V*qd_P3V2);
Ew_rel3_tip_z =   Platform.dO1_H*qd_P3H1 + Platform.dO2_H*qd_P3H2;
EwP3_tip = EwX + Ew_rel3_tip_y*BP3(2,:) + Ew_rel3_tip_z*BP3(3,:);

%% Velocity vectors

EvZ   = qd_Sg*Z(1,:) + qd_Hv*Z(2,:) - qd_Sw*Z(3,:);

XvT_1 = O1_TFA*qd_TFA1 + O2_TFA*qd_TFA2;
XvT_2 = -(s11_TFA*q_TFA1*qd_TFA1 + s22_TFA*q_TFA2*qd_TFA2 + s12_TFA*(qd_TFA1*q_TFA2+q_TFA1*qd_TFA2) ...
        + s11_TSS*q_TSS1*qd_TSS1 + s22_TSS*q_TSS2*qd_TSS2 + s12_TSS*(qd_TSS1*q_TSS2+q_TSS1*qd_TSS2));
XvT_3 = O1_TSS*qd_TSS1 + O2_TSS*qd_TSS2;
XvT = coprod(XvT_1,A(1,:)) + coprod(XvT_2,A(2,:)) + coprod(XvT_3,A(3,:));

XvO_1 = qd_TFA1 + qd_TFA2;
XvO_2 = -(S11_TFA*q_TFA1*qd_TFA1 + S22_TFA*q_TFA2*qd_TFA2 + S12_TFA*(qd_TFA1*q_TFA2+q_TFA1*qd_TFA2) ...
        + S11_TSS*q_TSS1*qd_TSS1 + S22_TSS*q_TSS2*qd_TSS2 + S12_TSS*(qd_TSS1*q_TSS2+q_TSS1*qd_TSS2));
XvO_3 = qd_TSS1 + qd_TSS2;
XvO = XvO_1*A(1,:) + XvO_2*A(2,:) + XvO_3*A(3,:);

EvO    = XvO + EvZ + cross(EwX,rZO);
EvQ    = EvO + cross(EwN,rOQ);
HvS1_1 = O1_B1*qd_B1F1 + O2_B1*qd_B1F2 + O3_B1*qd_B1E1;
HvS1_3 = -(s11_B1*q_B1F1*qd_B1F1 + s22_B1*q_B1F2*qd_B1F2 + s33_B1*q_B1E1*qd_B1E1 ...
        + s12_B1*(qd_B1F1*q_B1F2 + q_B1F1*qd_B1F2) + s23_B1*(qd_B1F2*q_B1E1 + q_B1F2*qd_B1E1) ...
        + s13_B1*(qd_B1F1*q_B1E1 + q_B1F1*qd_B1E1));
HvS1_2 = W1_B1*qd_B1F1 + W2_B1*qd_B1F2 + W3_B1*qd_B1E1;
HvS1 = coprod(HvS1_1,J1(1,:)) + coprod(HvS1_2,J1(2,:)) + coprod(HvS1_3,J1(3,:));

EvS1   =  repmat(EvQ,1,1,nb) + HvS1 + cross(repmat(EwL,1,1,nb),rQS1,2); 

HvS2_1 = O1_B2*qd_B2F1 + O2_B2*qd_B2F2 + O3_B2*qd_B2E1;
HvS2_3 = -(s11_B2*q_B2F1*qd_B2F1 + s22_B2*q_B2F2*qd_B2F2 + s33_B2*q_B2E1*qd_B2E1 ...
        + s12_B2*(qd_B2F1*q_B2F2 + q_B2F1*qd_B2F2) + s23_B2*(qd_B2F2*q_B2E1 + q_B2F2*qd_B2E1) ...
        + s13_B2*(qd_B2F1*q_B2E1 + q_B2F1*qd_B2E1));
HvS2_2 = W1_B2*qd_B2F1 + W2_B2*qd_B2F2 + W3_B2*qd_B2E1;
HvS2 = coprod(HvS2_1,J2(1,:)) + coprod(HvS2_2,J2(2,:)) + coprod(HvS2_3,J2(3,:));

EvS2   =  repmat(EvQ,1,1,nb) + HvS2 + cross(repmat(EwL,1,1,nb),rQS2,2);

HvS3_1 = O1_B3*qd_B3F1 + O2_B3*qd_B3F2 + O3_B3*qd_B3E1;
HvS3_3 = -(s11_B3*q_B3F1*qd_B3F1 + s22_B3*q_B3F2*qd_B3F2 + s33_B3*q_B3E1*qd_B3E1 ...
        + s12_B3*(qd_B3F1*q_B3F2 + q_B3F1*qd_B3F2) + s23_B3*(qd_B3F2*q_B3E1 + q_B3F2*qd_B3E1) ...
        + s13_B3*(qd_B3F1*q_B3E1 + q_B3F1*qd_B3E1));
HvS3_2 = W1_B3*qd_B3F1 + W2_B3*qd_B3F2 + W3_B3*qd_B3E1;
HvS3 = coprod(HvS3_1,J3(1,:)) + coprod(HvS3_2,J3(2,:)) + coprod(HvS3_3,J3(3,:));

EvS3   =  repmat(EvQ,1,1,nb) + HvS3 + cross(repmat(EwL,1,1,nb),rQS3,2);

%end of Velocity Vectors

%% ================== OC4 浮筒节点与端部线速度 ==================
% --- 补充提取浮筒端部振型值 (用于下面端部速度和加速度的计算) ---
O1_H_tip = Platform.O1_H(end); O2_H_tip = Platform.O2_H(end);
O1_V_tip = Platform.O1_V(end); O2_V_tip = Platform.O2_V(end);
% --- 梁 1 (指向 0 度) ---
% 相对速度 X分量 (轴向缩短效应的全导数)
XvP1_1 = -(Platform.s11_V*q_P1V1*qd_P1V1 + Platform.s22_V*q_P1V2*qd_P1V2 + Platform.s12_V*(q_P1V1*qd_P1V2 + q_P1V2*qd_P1V1) ...
         + Platform.s11_H*q_P1H1*qd_P1H1 + Platform.s22_H*q_P1H2*qd_P1H2 + Platform.s12_H*(q_P1H1*qd_P1H2 + q_P1H2*qd_P1H1));
XvP1_2 = Platform.O1_H*qd_P1H1 + Platform.O2_H*qd_P1H2;
XvP1_3 = Platform.O1_V*qd_P1V1 + Platform.O2_V*qd_P1V2;
XvP1   = coprod(XvP1_1, BP1(1,:)) + coprod(XvP1_2, BP1(2,:)) + coprod(XvP1_3, BP1(3,:));
% 分布节点绝对速度
EvP1   = repmat(EvZ, 1, 1, Platform.nt) + XvP1 + cross(repmat(EwX, 1, 1, Platform.nt), rP1, 2);

% 端部集中质量相对速度
XvP1_tip_1 = -(Platform.S11_V*q_P1V1*qd_P1V1 + Platform.S22_V*q_P1V2*qd_P1V2 + Platform.S12_V*(q_P1V1*qd_P1V2 + q_P1V2*qd_P1V1) ...
             + Platform.S11_H*q_P1H1*qd_P1H1 + Platform.S22_H*q_P1H2*qd_P1H2 + Platform.S12_H*(q_P1H1*qd_P1H2 + q_P1H2*qd_P1H1));
XvP1_tip_2 = O1_H_tip*qd_P1H1 + O2_H_tip*qd_P1H2;
XvP1_tip_3 = O1_V_tip*qd_P1V1 + O2_V_tip*qd_P1V2;
XvP1_tip   = XvP1_tip_1*BP1(1,:) + XvP1_tip_2*BP1(2,:) + XvP1_tip_3*BP1(3,:);
% 端部绝对速度
EvP1_tip   = EvZ + XvP1_tip + cross(EwX, rP1_tip);

% --- 梁 2 (指向 120 度) ---
XvP2_1 = -(Platform.s11_V*q_P2V1*qd_P2V1 + Platform.s22_V*q_P2V2*qd_P2V2 + Platform.s12_V*(q_P2V1*qd_P2V2 + q_P2V2*qd_P2V1) ...
         + Platform.s11_H*q_P2H1*qd_P2H1 + Platform.s22_H*q_P2H2*qd_P2H2 + Platform.s12_H*(q_P2H1*qd_P2H2 + q_P2H2*qd_P2H1));
XvP2_2 = Platform.O1_H*qd_P2H1 + Platform.O2_H*qd_P2H2;
XvP2_3 = Platform.O1_V*qd_P2V1 + Platform.O2_V*qd_P2V2;
XvP2   = coprod(XvP2_1, BP2(1,:)) + coprod(XvP2_2, BP2(2,:)) + coprod(XvP2_3, BP2(3,:));
EvP2   = repmat(EvZ, 1, 1, Platform.nt) + XvP2 + cross(repmat(EwX, 1, 1, Platform.nt), rP2, 2);

XvP2_tip_1 = -(Platform.S11_V*q_P2V1*qd_P2V1 + Platform.S22_V*q_P2V2*qd_P2V2 + Platform.S12_V*(q_P2V1*qd_P2V2 + q_P2V2*qd_P2V1) ...
             + Platform.S11_H*q_P2H1*qd_P2H1 + Platform.S22_H*q_P2H2*qd_P2H2 + Platform.S12_H*(q_P2H1*qd_P2H2 + q_P2H2*qd_P2H1));
XvP2_tip_2 = O1_H_tip*qd_P2H1 + O2_H_tip*qd_P2H2;
XvP2_tip_3 = O1_V_tip*qd_P2V1 + O2_V_tip*qd_P2V2;
XvP2_tip   = XvP2_tip_1*BP2(1,:) + XvP2_tip_2*BP2(2,:) + XvP2_tip_3*BP2(3,:);
EvP2_tip   = EvZ + XvP2_tip + cross(EwX, rP2_tip);

% --- 梁 3 (指向 240 度) ---
XvP3_1 = -(Platform.s11_V*q_P3V1*qd_P3V1 + Platform.s22_V*q_P3V2*qd_P3V2 + Platform.s12_V*(q_P3V1*qd_P3V2 + q_P3V2*qd_P3V1) ...
         + Platform.s11_H*q_P3H1*qd_P3H1 + Platform.s22_H*q_P3H2*qd_P3H2 + Platform.s12_H*(q_P3H1*qd_P3H2 + q_P3H2*qd_P3H1));
XvP3_2 = Platform.O1_H*qd_P3H1 + Platform.O2_H*qd_P3H2;
XvP3_3 = Platform.O1_V*qd_P3V1 + Platform.O2_V*qd_P3V2;
XvP3   = coprod(XvP3_1, BP3(1,:)) + coprod(XvP3_2, BP3(2,:)) + coprod(XvP3_3, BP3(3,:));
EvP3   = repmat(EvZ, 1, 1, Platform.nt) + XvP3 + cross(repmat(EwX, 1, 1, Platform.nt), rP3, 2);

XvP3_tip_1 = -(Platform.S11_V*q_P3V1*qd_P3V1 + Platform.S22_V*q_P3V2*qd_P3V2 + Platform.S12_V*(q_P3V1*qd_P3V2 + q_P3V2*qd_P3V1) ...
             + Platform.S11_H*q_P3H1*qd_P3H1 + Platform.S22_H*q_P3H2*qd_P3H2 + Platform.S12_H*(q_P3H1*qd_P3H2 + q_P3H2*qd_P3H1));
XvP3_tip_2 = O1_H_tip*qd_P3H1 + O2_H_tip*qd_P3H2;
XvP3_tip_3 = O1_V_tip*qd_P3V1 + O2_V_tip*qd_P3V2;
XvP3_tip   = XvP3_tip_1*BP3(1,:) + XvP3_tip_2*BP3(2,:) + XvP3_tip_3*BP3(3,:);
EvP3_tip   = EvZ + XvP3_tip + cross(EwX, rP3_tip);

%% Aerodynamic Loads
% Wind Interpolation 
ZBlNode_Y = zeros(nb,3);
ZBlNode_Z = zeros(nb,3);

ZBlNode_Y(:,1) = reshape(dot(repmat(rZO,1,1,nb) + repmat(rOQ,1,1,nb) + rQS1, repmat(Z(2,:),1,1,nb),2),nb,1);
ZBlNode_Y(:,2) = reshape(dot(repmat(rZO,1,1,nb) + repmat(rOQ,1,1,nb) + rQS2, repmat(Z(2,:),1,1,nb),2),nb,1);
ZBlNode_Y(:,3) = reshape(dot(repmat(rZO,1,1,nb) + repmat(rOQ,1,1,nb) + rQS3, repmat(Z(2,:),1,1,nb),2),nb,1);

ZBlNode_Z(:,1) = reshape(dot(repmat(rZO,1,1,nb) + repmat(rOQ,1,1,nb) + rQS1, repmat(Z(3,:),1,1,nb),2),nb,1);
ZBlNode_Z(:,2) = reshape(dot(repmat(rZO,1,1,nb) + repmat(rOQ,1,1,nb) + rQS2, repmat(Z(3,:),1,1,nb),2),nb,1);
ZBlNode_Z(:,3) = reshape(dot(repmat(rZO,1,1,nb) + repmat(rOQ,1,1,nb) + rQS3, repmat(Z(3,:),1,1,nb),2),nb,1);

% Check whether interpolation points within grid.
CheckInterpPoints(WindNom.y, WindNom.z, ZBlNode_Y, ZBlNode_Z);

Vx = zeros(nb, 3);
Vy = zeros(nb, 3);
Vz = zeros(nb, 3);

for iBd = 1:3
    for iNd = 1:nb
    Vx(iNd, iBd) = interpn([1 2 3], WindNom.y, WindNom.z, WindNom.velocity, 1, ZBlNode_Z(iNd,iBd), ZBlNode_Y(iNd,iBd));
    Vy(iNd, iBd) = interpn([1 2 3], WindNom.y, WindNom.z, WindNom.velocity, 2, ZBlNode_Z(iNd,iBd), ZBlNode_Y(iNd,iBd));
    Vz(iNd, iBd) = interpn([1 2 3], WindNom.y, WindNom.z, WindNom.velocity, 3, ZBlNode_Z(iNd,iBd), ZBlNode_Y(iNd,iBd));      
    end
end

VzB1 = coprod(reshape(Vx(:, 1),1,1,nb),Z(1,:)) + coprod(reshape(Vy(:, 1),1,1,nb),Z(3,:)) + coprod(reshape(Vz(:, 1),1,1,nb),Z(2,:));
VzB2 = coprod(reshape(Vx(:, 2),1,1,nb),Z(1,:)) + coprod(reshape(Vy(:, 2),1,1,nb),Z(3,:)) + coprod(reshape(Vz(:, 2),1,1,nb),Z(2,:));
VzB3 = coprod(reshape(Vx(:, 3),1,1,nb),Z(1,:)) + coprod(reshape(Vy(:, 3),1,1,nb),Z(3,:)) + coprod(reshape(Vz(:, 3),1,1,nb),Z(2,:));

% Blade velocities at blade local co-ordinates
UMB = zeros(nb,2,3);


UMB(:,1,1) = dot(EvS1,MB1(1,:,:),2);
UMB(:,1,2) = dot(EvS2,MB2(1,:,:),2);
UMB(:,1,3) = dot(EvS3,MB3(1,:,:),2);

if WindNom.AeroElastic
    UMB(:,2,1) = dot(EvS1,-MB1(2,:,:),2);
    UMB(:,2,2) = dot(EvS2,-MB2(2,:,:),2);       
    UMB(:,2,3) = dot(EvS3,-MB3(2,:,:),2); 
else
    UMB(:,2,1) = dot(cross(repmat(EwL,1,1,nb),rQS1,2),-MB1(2,:,:),2);
    UMB(:,2,2) = dot(cross(repmat(EwL,1,1,nb),rQS2,2),-MB2(2,:,:),2);
    UMB(:,2,3) = dot(cross(repmat(EwL,1,1,nb),rQS3,2),-MB3(2,:,:),2);
end

% Average wind vector from the field
    
AvgWndVect = mean(mean(WindNom.velocity,3),2);

if WindNom.PittandPeters
   chi0 = atan2(norm(cross(C(1,:), AvgWndVect)), dot(C(1,:), AvgWndVect)); 
else
   chi0 = 0;
end
% chi0 = 0;
% rows -> blade nodes; columns -> x, z, y directions respectively; 3rd dimension -> blade number  

% Wind speeds at blade local coordinates
VMB = zeros(nb,2,3);

VMB(:,1,1)   = dot(VzB1,MB1(1,:,:),2);          % wind velocity at blade nodes
VMB(:,2,1)   = dot(VzB1,MB1(2,:,:),2);
% VMB(:,3,1)   = dot(VzB1,MB1(3,:,:),2);        % we don't really need the z co-ordinate

VMB(:,1,2)   = dot(VzB2,MB2(1,:,:),2);
VMB(:,2,2)   = dot(VzB2,MB2(2,:,:),2);
% VMB(:,3,2)   = dot(VzB2,MB2(3,:,:),2);

VMB(:,1,3)   = dot(VzB3,MB3(1,:,:),2);
VMB(:,2,3)   = dot(VzB3,MB3(2,:,:),2);
% VMB(:,3,3)   = dot(VzB3,MB3(3,:,:),2); 
% disp(UMB)
% pause
% Load vectors

FlexBlSpn = zeros(nb,3);

FlexBlSpn(:,1) = dot(rQS1,repmat(J1(3,:),1,1,nb),2);
FlexBlSpn(:,2) = dot(rQS2,repmat(J2(3,:),1,1,nb),2);
FlexBlSpn(:,3) = dot(rQS3,repmat(J3(3,:),1,1,nb),2);


%     [px, py, Mz] = BEMT(t, q_GeAz, VMB, UMB, nb, BldSec+HubRad, FlexBlSpn, TipRad, HubRad, Cord, Twist,...
%                            BlPitch, chi0, FoilNo, Airfoils, Bld.AeroCentJ1, Bld.AeroCentJ2);
phi = reshape(Controls(5:3*nb+4), [nb 3]);

[px, py, Mz, phi] = BEMTMex(q_GeAz, VMB, UMB, phi, nb, BldSec+HubRad, FlexBlSpn, TipRad, HubRad, Cord, Bld.Twist,...
                   BlPitch, chi0, FoilNo, Airfoils, Bld.AeroCentJ1, Bld.AeroCentJ2);       

% [px, py, Mz, phi] = BEMTMex_mex(q_GeAz, VMB, UMB, phi, nb, BldSec+HubRad, FlexBlSpn, TipRad, HubRad, Cord, Bld.Twist,...
%                    BlPitch, chi0, FoilNo, Airfoils, Bld.AeroCentJ1, Bld.AeroCentJ2);       

F_AeroB1 = coprod(reshape(px(:,1),1,1,nb),MB1(1,:,:)) + coprod(reshape(py(:,1),1,1,nb),MB1(2,:,:)); 
F_AeroB2 = coprod(reshape(px(:,2),1,1,nb),MB2(1,:,:)) + coprod(reshape(py(:,2),1,1,nb),MB2(2,:,:));
F_AeroB3 = coprod(reshape(px(:,3),1,1,nb),MB3(1,:,:)) + coprod(reshape(py(:,3),1,1,nb),MB3(2,:,:));

% M_AeroB1 = coprod(reshape(Mz(:,1),1,1,nb),MB1(3,:,:));
% M_AeroB2 = coprod(reshape(Mz(:,2),1,1,nb),MB2(3,:,:));
% M_AeroB3 = coprod(reshape(Mz(:,3),1,1,nb),MB3(3,:,:));

M_AeroB1 = zeros(1,3,nb); M_AeroB2 = M_AeroB1; M_AeroB3 = M_AeroB1;

F_AeroTA1 = zeros(nt,1); F_AeroTA2 = F_AeroTA1; F_AeroTA3 = F_AeroTA1;
F_AeroT = coprod(reshape(F_AeroTA1,1,1,nt),A(1,:)) + coprod(reshape(F_AeroTA2,1,1,nt),A(2,:)) + coprod(reshape(F_AeroTA3,1,1,nt),A(3,:));

%% Hydrodynamic Loads
X  = [q_Sg, q_Sw, q_Hv, q_R, q_P, q_Y];
XD = [qd_Sg, qd_Sw, qd_Hv, qd_R, qd_P, qd_Y];


% Hydrostatic forces
C_HydroStat = [0 0       0       0            0  0; 
               0 0       0       0            0  0;
               0 0 3.836e6       0            0  0;
               0 0       0   -3.776e8         0  0;
               0 0       0       0     -3.776e8  0;
               0 0       0       0            0  0];             
ff_HydroStat = [0 0 80708100 0 0 0]' - C_HydroStat*X';

% Additional damping
AddDamp = [100000 0       0   0   0     0;
            0  100000     0   0   0     0;
            0     0   130000  0   0     0;
            0     0       0   0   0     0;
            0     0       0   0   0     0;
            0     0       0   0   0 13000000];
f_AddDamp = -AddDamp*XD';

% Hyrdro Loads
F_Hydro = (ff_HydroStat(1) + f_Morison(1) + mooring_load(1)).*Z(1,:) + (ff_HydroStat(2) + f_Morison(2) + mooring_load(2)).*(-Z(3,:))...
        + (ff_HydroStat(3) + f_Morison(3) + mooring_load(3)).*Z(2,:);
M_Hydro = (ff_HydroStat(4) + f_Morison(4) + mooring_load(4)).*Z(1,:) + (ff_HydroStat(5) + f_Morison(5) + mooring_load(5)).*(-Z(3,:))...
        + (ff_HydroStat(6) + f_Morison(6) + mooring_load(6)).*Z(2,:);

%% Partial Angular Velocities

% #1. Platform

EwX_R = Z(1,:);
EwX_P = -Z(3,:);
EwX_Y = Z(2,:);

% #2. Tower Element

% All these quantities are not used
% EwF_R = Z(1,:);
% EwF_P = -Z(3,:);
% EwF_Y = Z(2,:);
% EwF_TFA1 = -do1_TFA*A(3,:);      
% EwF_TSS1 =  do1_TSS*A(1,:);   
% EwF_TFA2 = -do2_TFA*A(3,:);
% EwF_TSS2 =  do2_TSS*A(1,:);

% #3. Tower top/Base plate 

EwB_R = EwX_R;
EwB_P = EwX_P;
EwB_Y = EwX_Y;
EwB_TFA1 = -dO1_TFA*A(3,:);
EwB_TSS1 =  dO1_TSS*A(1,:);
EwB_TFA2 = -dO2_TFA*A(3,:);
EwB_TSS2 =  dO2_TSS*A(1,:);

% #4. Nacelle

EwN_R = EwB_R;
EwN_P = EwB_P;
EwN_Y = EwB_Y;
EwN_TFA1 = -dO1_TFA*A(3,:);
EwN_TSS1 =  dO1_TSS*A(1,:);
EwN_TFA2 = -dO2_TFA*A(3,:);
EwN_TSS2 =  dO2_TSS*A(1,:);
EwN_yaw  =  D(2,:);

% #5. Low speed shaft

EwL_R = EwN_R;
EwL_P = EwN_P;
EwL_Y = EwN_Y;
EwL_TFA1 = -dO1_TFA*A(3,:);
EwL_TSS1 =  dO1_TSS*A(1,:);
EwL_TFA2 = -dO2_TFA*A(3,:);
EwL_TSS2 =  dO2_TSS*A(1,:);
EwL_yaw  =  D(2,:);
EwL_GeAz  =  C(1,:);
EwL_DrTr  =  C(1,:);

% #6. Blade 1 Element

% EwM1_R = repmat(EwN_R,1,1,nb);
% EwM1_P = repmat(EwN_P,1,1,nb);
% EwM1_Y = repmat(EwN_Y,1,1,nb);
% EwM1_TFA1 = repmat(EwL_TFA1,1,1,nb);
% EwM1_TSS1 = repmat(EwL_TSS1,1,1,nb);
% EwM1_TFA2 = repmat(EwL_TFA2,1,1,nb);
% EwM1_TSS2 = repmat(EwL_TSS2,1,1,nb);
% EwM1_yaw  =  repmat(EwL_yaw,1,1,nb);
% EwM1_GeAz  = repmat(EwL_GeAz,1,1,nb);
% EwM1_DrTr  = repmat(EwL_DrTr,1,1,nb);
EwM1_B1F1  =  coprod(-dW1_B1,J1(1,:)) + coprod(dO1_B1,J1(2,:));
EwM1_B1E1  =  coprod(-dW3_B1,J1(1,:)) + coprod(dO3_B1,J1(2,:));
EwM1_B1F2  =  coprod(-dW2_B1,J1(1,:)) + coprod(dO2_B1,J1(2,:));

% #7. Blade 2 Element

% EwM2_R = repmat(EwN_R,1,1,nb);
% EwM2_P = repmat(EwN_P,1,1,nb);
% EwM2_Y = repmat(EwN_Y,1,1,nb);
% EwM2_TFA1 = repmat(EwL_TFA1,1,1,nb);
% EwM2_TSS1 = repmat(EwL_TSS1,1,1,nb);
% EwM2_TFA2 = repmat(EwL_TFA2,1,1,nb);
% EwM2_TSS2 = repmat(EwL_TSS2,1,1,nb);
% EwM2_yaw  =  repmat(EwL_yaw,1,1,nb);
% EwM2_GeAz  = repmat(EwL_GeAz,1,1,nb);
% EwM2_DrTr  = repmat(EwL_DrTr,1,1,nb);
EwM2_B2F1  =  coprod(-dW1_B2,J2(1,:)) + coprod(dO1_B2,J2(2,:));
EwM2_B2E1  =  coprod(-dW3_B2,J2(1,:)) + coprod(dO3_B2,J2(2,:));
EwM2_B2F2  =  coprod(-dW2_B2,J2(1,:)) + coprod(dO2_B2,J2(2,:));

% #8. Blade 3 Element

% EwM3_R = repmat(EwN_R,1,1,nb);
% EwM3_P = repmat(EwN_P,1,1,nb);
% EwM3_Y = repmat(EwN_Y,1,1,nb);
% EwM3_TFA1 = repmat(EwL_TFA1,1,1,nb);
% EwM3_TSS1 = repmat(EwL_TSS1,1,1,nb);
% EwM3_TFA2 = repmat(EwL_TFA2,1,1,nb);
% EwM3_TSS2 =  repmat(EwL_TSS2,1,1,nb);
% EwM3_yaw  =  repmat(EwL_yaw,1,1,nb);
% EwM3_GeAz  = repmat(EwL_GeAz,1,1,nb);
% EwM3_DrTr  = repmat(EwL_DrTr,1,1,nb);
EwM3_B3F1  =  coprod(-dW1_B3,J3(1,:)) + coprod(dO1_B3,J3(2,:));
EwM3_B3E1  =  coprod(-dW3_B3,J3(1,:)) + coprod(dO3_B3,J3(2,:));
EwM3_B3F2  =  coprod(-dW2_B3,J3(1,:)) + coprod(dO2_B3,J3(2,:));


% #9. High speed shaft/Generator

EwG_R = Z(1,:);
EwG_P = -Z(3,:);
EwG_Y = Z(2,:);
EwG_TFA1 = -dO1_TFA*A(3,:);
EwG_TSS1 =  dO1_TSS*A(1,:);
EwG_TFA2 = -dO2_TFA*A(3,:);
EwG_TSS2 =  dO2_TSS*A(1,:);
EwG_yaw  =  D(2,:);
EwG_GeAz = GenDir*GBRatio*C(1,:);

% end of Partial Angular Velocities

%% ================== OC4 浮筒偏角速度 (仅端部集中质量需要) ==================
% 平台基础转动偏导
EwP1_tip_R = EwX_R; EwP1_tip_P = EwX_P; EwP1_tip_Y = EwX_Y;
EwP2_tip_R = EwX_R; EwP2_tip_P = EwX_P; EwP2_tip_Y = EwX_Y;
EwP3_tip_R = EwX_R; EwP3_tip_P = EwX_P; EwP3_tip_Y = EwX_Y;

% 浮筒局部弯曲偏角速度
EwP1_tip_P1H1 =  Platform.dO1_H*BP1(3,:); EwP1_tip_P1H2 =  Platform.dO2_H*BP1(3,:);
EwP1_tip_P1V1 = -Platform.dO1_V*BP1(2,:); EwP1_tip_P1V2 = -Platform.dO2_V*BP1(2,:);

EwP2_tip_P2H1 =  Platform.dO1_H*BP2(3,:); EwP2_tip_P2H2 =  Platform.dO2_H*BP2(3,:);
EwP2_tip_P2V1 = -Platform.dO1_V*BP2(2,:); EwP2_tip_P2V2 = -Platform.dO2_V*BP2(2,:);

EwP3_tip_P3H1 =  Platform.dO1_H*BP3(3,:); EwP3_tip_P3H2 =  Platform.dO2_H*BP3(3,:);
EwP3_tip_P3V1 = -Platform.dO1_V*BP3(2,:); EwP3_tip_P3V2 = -Platform.dO2_V*BP3(2,:);

%% Partial Linear Velocities

% #1. Platform

EvZ_Sg = Z(1,:);
EvZ_Sw = -Z(3,:);
EvZ_Hv = Z(2,:);

% #2. Platform C.M
EvY_Sg = EvZ_Sg;
EvY_Sw = EvZ_Sw;
EvY_Hv = EvZ_Hv;
EvY_R  = cross(EwX_R,rZY);
EvY_P  = cross(EwX_P,rZY);
EvY_Y  = cross(EwX_Y,rZY);

% #3. Tower

EvF_Sg = repmat(Z(1,:),[1 1 nt]);
EvF_Sw = repmat(-Z(3,:),[1 1 nt]);
EvF_Hv = repmat(Z(2,:),[1 1 nt]);
EvF_R  = cross(repmat(EwX_R,[1 1 nt]),rZT,2);
EvF_P  = cross(repmat(EwX_P,[1 1 nt]),rZT,2);
EvF_Y  = cross(repmat(EwX_Y,[1 1 nt]),rZT,2);
EvF_TFA1 = coprod(O1_TFA,A(1,:)) - coprod((s11_TFA*q_TFA1 + s12_TFA*q_TFA2),A(2,:)); 
EvF_TSS1 = coprod(O1_TSS,A(3,:)) - coprod((s11_TSS*q_TSS1 + s12_TSS*q_TSS2),A(2,:));
EvF_TFA2 = coprod(O2_TFA,A(1,:)) - coprod((s22_TFA*q_TFA2 + s12_TFA*q_TFA1),A(2,:));
EvF_TSS2 = coprod(O2_TSS,A(3,:)) - coprod((s22_TSS*q_TSS2 + s12_TSS*q_TSS1),A(2,:));

% #4. Tower top/Base plate

EvO_Sg = EvY_Sg;
EvO_Sw = EvY_Sw;
EvO_Hv = EvY_Hv;
EvO_R  = cross(EwX_R,rZO);
EvO_P  = cross(EwX_P,rZO);
EvO_Y  = cross(EwX_Y,rZO);
EvO_TFA1 = A(1,:) - (S11_TFA*q_TFA1 + S12_TFA*q_TFA2)*A(2,:);
EvO_TSS1 = A(3,:) - (S11_TSS*q_TSS1 + S12_TSS*q_TSS2)*A(2,:);
EvO_TFA2 = A(1,:) - (S22_TFA*q_TFA2 + S12_TFA*q_TFA1)*A(2,:);
EvO_TSS2 = A(3,:) - (S22_TSS*q_TSS2 + S12_TSS*q_TSS1)*A(2,:);

% #5. Nacelle
EvU_Sg = EvO_Sg;
EvU_Sw = EvO_Sw;
EvU_Hv = EvO_Hv;
EvU_R  = EvO_R + cross(EwN_R,rOU);
EvU_P  = EvO_P + cross(EwN_P,rOU);
EvU_Y  = EvO_Y + cross(EwN_Y,rOU);
EvU_TFA1  = EvO_TFA1 + cross(EwN_TFA1,rOU);
EvU_TSS1  = EvO_TSS1 + cross(EwN_TSS1,rOU);
EvU_TFA2  = EvO_TFA2 + cross(EwN_TFA2,rOU);
EvU_TSS2  = EvO_TSS2 + cross(EwN_TSS2,rOU);
EvU_yaw   = cross(EwN_yaw,rOU);

% #6. Appex of conning angle

EvQ_Sg = EvO_Sg;
EvQ_Sw = EvO_Sw;
EvQ_Hv = EvO_Hv;
EvQ_R  = EvO_R + cross(EwN_R,rOQ);
EvQ_P  = EvO_P + cross(EwN_P,rOQ);
EvQ_Y  = EvO_Y + cross(EwN_Y,rOQ);
EvQ_TFA1  = EvO_TFA1 + cross(EwN_TFA1,rOQ);
EvQ_TSS1  = EvO_TSS1 + cross(EwN_TSS1,rOQ);
EvQ_TFA2  = EvO_TFA2 + cross(EwN_TFA2,rOQ);
EvQ_TSS2  = EvO_TSS2 + cross(EwN_TSS2,rOQ);
EvQ_yaw   = cross(EwN_yaw,rOQ);
% EvQ_GeAz  = cross(EwN_GeAz,rOQ);
% EvQ_DrTr  = cross(EwN_DrTr,rOQ);

% #7. Hub C.M

EvC_Sg = EvQ_Sg;
EvC_Sw = EvQ_Sw;
EvC_Hv = EvQ_Hv;
EvC_R  = EvQ_R + cross(EwL_R,rQC);
EvC_P  = EvQ_P + cross(EwL_P,rQC);
EvC_Y  = EvQ_Y + cross(EwL_Y,rQC);
EvC_TFA1  = EvQ_TFA1 + cross(EwL_TFA1,rQC);
EvC_TSS1  = EvQ_TSS1 + cross(EwL_TSS1,rQC);
EvC_TFA2  = EvQ_TFA2 + cross(EwL_TFA2,rQC);
EvC_TSS2  = EvQ_TSS2 + cross(EwL_TSS2,rQC);
EvC_yaw   = EvQ_yaw  + cross(EwL_yaw,rQC);
EvC_GeAz  = cross(EwL_GeAz,rQC);
EvC_DrTr  = cross(EwL_DrTr,rQC);

% #8. Blade 1

EvS1_Sg = repmat(EvQ_Sg,1,1,nb);
EvS1_Sw = repmat(EvQ_Sw,1,1,nb);
EvS1_Hv = repmat(EvQ_Hv,1,1,nb);
EvS1_R  = repmat(EvQ_R,1,1,nb) + cross(repmat(EwL_R,1,1,nb),rQS1,2);
EvS1_P  = repmat(EvQ_P,1,1,nb) + cross(repmat(EwL_P,1,1,nb),rQS1,2);
EvS1_Y  = repmat(EvQ_Y,1,1,nb) + cross(repmat(EwL_Y,1,1,nb),rQS1,2);
EvS1_TFA1  = repmat(EvQ_TFA1,1,1,nb) + cross(repmat(EwL_TFA1,1,1,nb),rQS1,2);
EvS1_TSS1  = repmat(EvQ_TSS1,1,1,nb) + cross(repmat(EwL_TSS1,1,1,nb),rQS1,2);
EvS1_TFA2  = repmat(EvQ_TFA2,1,1,nb) + cross(repmat(EwL_TFA2,1,1,nb),rQS1,2);
EvS1_TSS2  = repmat(EvQ_TSS2,1,1,nb) + cross(repmat(EwL_TSS2,1,1,nb),rQS1,2);
EvS1_yaw   = repmat(EvQ_yaw,1,1,nb)  + cross(repmat(EwL_yaw,1,1,nb),rQS1,2);
EvS1_GeAz  = cross(repmat(EwL_GeAz,1,1,nb),rQS1,2);
EvS1_DrTr  = cross(repmat(EwL_DrTr,1,1,nb),rQS1,2);
EvS1_B1F1  = coprod(O1_B1,J1(1,:)) + coprod(W1_B1,J1(2,:)) - coprod((s11_B1*q_B1F1 + s12_B1*q_B1F2 + s13_B1*q_B1E1),J1(3,:)); 
EvS1_B1E1  = coprod(O3_B1,J1(1,:)) + coprod(W3_B1,J1(2,:)) - coprod((s33_B1*q_B1E1 + s23_B1*q_B1F2 + s13_B1*q_B1F1),J1(3,:));
EvS1_B1F2  = coprod(O2_B1,J1(1,:)) + coprod(W2_B1,J1(2,:)) - coprod((s22_B1*q_B1F2 + s12_B1*q_B1F1 + s23_B1*q_B1E1),J1(3,:));

% Blade 2

EvS2_Sg = repmat(EvQ_Sg,1,1,nb);
EvS2_Sw = repmat(EvQ_Sw,1,1,nb);
EvS2_Hv = repmat(EvQ_Hv,1,1,nb);
EvS2_R  = repmat(EvQ_R,1,1,nb) + cross(repmat(EwL_R,1,1,nb),rQS2,2);
EvS2_P  = repmat(EvQ_P,1,1,nb) + cross(repmat(EwL_P,1,1,nb),rQS2,2);
EvS2_Y  = repmat(EvQ_Y,1,1,nb) + cross(repmat(EwL_Y,1,1,nb),rQS2,2);
EvS2_TFA1  = repmat(EvQ_TFA1,1,1,nb) + cross(repmat(EwL_TFA1,1,1,nb),rQS2,2);
EvS2_TSS1  = repmat(EvQ_TSS1,1,1,nb) + cross(repmat(EwL_TSS1,1,1,nb),rQS2,2);
EvS2_TFA2  = repmat(EvQ_TFA2,1,1,nb) + cross(repmat(EwL_TFA2,1,1,nb),rQS2,2);
EvS2_TSS2  = repmat(EvQ_TSS2,1,1,nb) + cross(repmat(EwL_TSS2,1,1,nb),rQS2,2);
EvS2_yaw   = repmat(EvQ_yaw,1,1,nb)  + cross(repmat(EwL_yaw,1,1,nb),rQS2,2);
EvS2_GeAz  = cross(repmat(EwL_GeAz,1,1,nb),rQS2,2);
EvS2_DrTr  = cross(repmat(EwL_DrTr,1,1,nb),rQS2,2);
EvS2_B2F1  = coprod(O1_B2,J2(1,:)) + coprod(W1_B2,J2(2,:)) - coprod((s11_B2*q_B2F1 + s12_B2*q_B2F2 + s13_B2*q_B2E1),J2(3,:));
EvS2_B2E1  = coprod(O3_B2,J2(1,:)) + coprod(W3_B2,J2(2,:)) - coprod((s33_B2*q_B2E1 + s23_B2*q_B2F2 + s13_B2*q_B2F1),J2(3,:));